Version 4
SHEET 1 1148 680
WIRE 256 -32 256 -64
WIRE 224 -16 16 -16
WIRE 16 16 16 -16
WIRE 224 16 128 16
WIRE -224 32 -224 0
WIRE -144 32 -144 0
WIRE 496 64 400 64
WIRE 128 112 128 96
WIRE 224 112 128 112
WIRE 16 128 16 96
WIRE -224 144 -224 112
WIRE -144 144 -144 112
WIRE 224 144 192 144
WIRE 336 160 336 128
WIRE 192 176 192 144
WIRE 256 192 256 160
WIRE 336 272 336 240
FLAG -224 144 0
FLAG -144 144 0
FLAG -224 0 Vcc
FLAG -144 0 Vee
FLAG 16 128 0
FLAG 16 -16 IN
FLAG 496 64 OUT
FLAG 192 176 0
FLAG 256 -64 Vcc
FLAG 256 192 Vee
FLAG 336 272 0
SYMBOL voltage -224 16 R0
SYMATTR InstName V1
SYMATTR Value 12
SYMBOL voltage -144 16 R0
SYMATTR InstName V2
SYMATTR Value -12
SYMBOL res 112 0 R0
SYMATTR InstName R2
SYMATTR Value {R}
SYMBOL voltage 16 0 R0
WINDOW 123 26 105 Left 2
WINDOW 39 0 0 Left 2
SYMATTR Value2 AC 1
SYMATTR InstName V3
SYMATTR Value ""
SYMBOL AD8421 256 64 R0
SYMATTR InstName U1
SYMATTR SpiceModel LTC3.lib
SYMATTR Value2 LT1789-10
SYMATTR Description µPower, Single Supply Rail-to-Rail Output Instrumentation Amplifier
SYMBOL voltage 336 144 R0
SYMATTR InstName V4
SYMATTR Value 2.5
TEXT 328 -120 Left 2 !.AC DEC 100 1e2 1e6
TEXT 328 -88 Left 2 !.step PARAM R list 10k 1.1k 4.99
