Version 4
SHEET 1 880 680
WIRE 128 16 128 -48
WIRE 96 32 -80 32
WIRE 96 64 16 64
WIRE -288 80 -288 32
WIRE -192 80 -192 32
WIRE -80 80 -80 32
WIRE 16 80 16 64
WIRE 320 112 272 112
WIRE 96 160 16 160
WIRE 96 192 48 192
WIRE -288 208 -288 160
WIRE -192 208 -192 160
WIRE -80 208 -80 160
WIRE 48 208 48 192
WIRE 208 208 208 176
WIRE 128 272 128 208
FLAG -80 208 0
FLAG 48 208 0
FLAG 208 208 0
FLAG -192 208 0
FLAG -288 208 0
FLAG 128 -48 Vcc
FLAG -192 32 Vcc
FLAG 128 272 Vee
FLAG -288 32 Vee
FLAG 320 112 OUT
FLAG -80 32 IN
SYMBOL res 0 64 R0
SYMATTR InstName R1
SYMATTR Value {R}
SYMBOL voltage -80 64 R0
WINDOW 3 24 44 Left 2
WINDOW 39 0 0 Left 2
SYMATTR Value SINE(0 10m 10k)
SYMATTR Value2 AC 1
SYMATTR InstName V1
SYMBOL voltage -192 64 R0
WINDOW 3 8 96 Left 2
WINDOW 123 0 0 Left 2
WINDOW 39 0 0 Left 2
SYMATTR Value 15
SYMATTR InstName V2
SYMBOL voltage -288 64 R0
WINDOW 3 8 101 Left 2
WINDOW 123 0 0 Left 2
WINDOW 39 0 0 Left 2
SYMATTR Value -15
SYMATTR InstName V3
SYMBOL MyLibrary\\ad8421\\AD8421 128 112 R0
SYMATTR InstName U1
TEXT 256 240 Left 2 !.step PARAM R list 10k 1.1k 100 10
TEXT -322 368 Left 2 !.tran 0.3m
