Version 4
SHEET 1 972 680
WIRE -1264 -352 -2032 -352
WIRE -512 -352 -1264 -352
WIRE -240 -352 -512 -352
WIRE -1616 -304 -1968 -304
WIRE -1200 -304 -1616 -304
WIRE -448 -304 -1200 -304
WIRE -240 -288 -240 -352
WIRE -1616 -272 -1616 -304
WIRE -2032 -160 -2032 -352
WIRE -1264 -160 -1264 -352
WIRE -512 -160 -512 -352
WIRE -240 -160 -240 -208
WIRE -1968 -128 -1968 -304
WIRE -1616 -128 -1616 -192
WIRE -1200 -128 -1200 -304
WIRE -448 -128 -448 -304
WIRE -1920 -96 -1920 -176
WIRE -1152 -96 -1152 -176
WIRE -400 -96 -400 -192
WIRE -2128 -64 -2224 -64
WIRE -1360 -64 -1376 -64
WIRE -608 -64 -640 -64
WIRE -2224 -16 -2224 -64
WIRE -1808 -16 -1824 -16
WIRE -1792 -16 -1808 -16
WIRE -1616 -16 -1648 -16
WIRE -1584 -16 -1616 -16
WIRE -1472 -16 -1504 -16
WIRE -1440 -16 -1472 -16
WIRE -1376 -16 -1376 -64
WIRE -1040 -16 -1056 -16
WIRE -864 -16 -896 -16
WIRE -832 -16 -864 -16
WIRE -720 -16 -752 -16
WIRE -704 -16 -720 -16
WIRE -640 -16 -640 -64
WIRE -272 -16 -304 -16
WIRE -160 -16 -192 -16
WIRE -128 -16 -160 -16
WIRE -1616 32 -1616 -16
WIRE -1472 32 -1472 -16
WIRE -864 32 -864 -16
WIRE -720 32 -720 -16
WIRE -160 32 -160 -16
WIRE -1808 96 -1808 -16
WIRE -1808 96 -1968 96
WIRE -1040 96 -1040 -16
WIRE -1040 96 -1200 96
WIRE -304 96 -304 -16
WIRE -304 96 -448 96
WIRE -240 160 -240 96
WIRE -2224 176 -2224 64
WIRE -2128 176 -2128 32
WIRE -1616 176 -1616 96
WIRE -1472 176 -1472 96
WIRE -1360 176 -1360 32
WIRE -864 176 -864 96
WIRE -720 176 -720 96
WIRE -608 176 -608 32
WIRE -160 176 -160 112
WIRE -2032 240 -2032 128
WIRE -1264 240 -1264 128
WIRE -1264 240 -2032 240
WIRE -512 240 -512 128
WIRE -512 240 -1264 240
WIRE -240 240 -512 240
FLAG -2128 176 0
FLAG -240 96 0
FLAG -240 -160 0
FLAG -2224 176 0
FLAG -128 -16 OUT
IOPIN -128 -16 Out
FLAG -1920 -176 0
FLAG -1616 176 0
FLAG -1472 176 0
FLAG -1616 -128 0
FLAG -1152 -176 0
FLAG -160 176 0
FLAG -1360 176 0
FLAG -400 -192 0
FLAG -608 176 0
FLAG -864 176 0
FLAG -720 176 0
SYMBOL voltage -240 144 R0
WINDOW 0 24 104 Left 0
WINDOW 3 24 16 Left 0
WINDOW 123 0 0 Left 0
WINDOW 39 0 0 Left 0
SYMATTR InstName V1
SYMATTR Value 5
SYMBOL voltage -240 -304 R0
WINDOW 0 24 104 Left 0
WINDOW 3 24 16 Left 0
WINDOW 123 0 0 Left 0
WINDOW 39 0 0 Left 0
SYMATTR InstName V2
SYMATTR Value 5
SYMBOL voltage -2224 -32 R0
WINDOW 123 24 132 Left 0
WINDOW 39 0 0 Left 0
WINDOW 3 24 160 Left 0
SYMATTR Value2 AC 1
SYMATTR Value SINE(0 10e-6 9e6)
SYMATTR InstName V3
SYMBOL cap -1648 -32 R90
WINDOW 0 0 32 VBottom 0
WINDOW 3 32 32 VTop 0
SYMATTR InstName C1
SYMATTR Value 38p
SYMBOL cap -1600 96 R180
WINDOW 0 -18 2 Left 0
WINDOW 3 24 8 Left 0
SYMATTR InstName C2
SYMATTR Value 81p
SYMBOL cap -1456 96 R180
WINDOW 0 -19 3 Left 0
WINDOW 3 24 8 Left 0
SYMATTR InstName C3
SYMATTR Value 81p
SYMBOL cap -1440 0 R270
WINDOW 0 32 32 VTop 0
WINDOW 3 0 32 VBottom 0
SYMATTR InstName C4
SYMATTR Value 38p
SYMBOL ind -1600 0 R270
WINDOW 0 32 56 VTop 0
WINDOW 3 -3 55 VBottom 0
SYMATTR InstName L1
SYMATTR Value 5.3µ
SYMBOL res -1696 -32 R90
WINDOW 0 0 56 VBottom 0
WINDOW 3 32 56 VTop 0
SYMATTR InstName R1
SYMATTR Value 100
SYMBOL voltage -1616 -288 R0
WINDOW 0 24 104 Left 0
WINDOW 3 24 16 Left 0
WINDOW 123 0 0 Left 0
WINDOW 39 0 0 Left 0
SYMATTR InstName V4
SYMATTR Value .5
SYMBOL ad603 -2016 -16 R0
WINDOW 3 -44 -2 Left 0
SYMATTR InstName U1
SYMBOL res -144 128 R180
WINDOW 0 36 76 Left 0
WINDOW 3 36 40 Left 0
SYMATTR InstName R3
SYMATTR Value 100
SYMBOL ad603 -1248 -16 R0
WINDOW 3 -44 -2 Left 0
SYMATTR InstName U2
SYMBOL res -176 -32 R90
WINDOW 0 0 56 VBottom 0
WINDOW 3 32 56 VTop 0
SYMATTR InstName R2
SYMATTR Value 100
SYMBOL ad603 -496 -16 R0
WINDOW 3 -44 -2 Left 0
SYMATTR InstName U3
SYMBOL res -944 -32 R90
WINDOW 0 0 56 VBottom 0
WINDOW 3 32 56 VTop 0
SYMATTR InstName R4
SYMATTR Value 100
SYMBOL cap -896 -32 R90
WINDOW 0 0 32 VBottom 0
WINDOW 3 32 32 VTop 0
SYMATTR InstName C5
SYMATTR Value 38p
SYMBOL ind -848 0 R270
WINDOW 0 32 56 VTop 0
WINDOW 3 -3 55 VBottom 0
SYMATTR InstName L2
SYMATTR Value 5.3µ
SYMBOL cap -704 0 R270
WINDOW 0 32 32 VTop 0
WINDOW 3 0 32 VBottom 0
SYMATTR InstName C6
SYMATTR Value 38p
SYMBOL cap -848 96 R180
WINDOW 0 -18 2 Left 0
WINDOW 3 24 8 Left 0
SYMATTR InstName C7
SYMATTR Value 81p
SYMBOL cap -704 96 R180
WINDOW 0 -18 2 Left 0
WINDOW 3 24 8 Left 0
SYMATTR InstName C8
SYMATTR Value 81p
TEXT -2264 -496 Left 0 !.options plotwinsize=0
TEXT -2264 -464 Left 0 !.ac dec 1000 5e6 20e6
TEXT -2264 -440 Left 0 !.measure tmp max mag(V(out))\n.measure BW trig mag(V(out))=tmp/sqrt(2) rise=1 targ mag(V(out))=tmp/sqrt(2) fall=last
